<?xml version="1.0" encoding="UTF-8"?>

<!-- generated on 2025-05-28 19:52:08 by Eclipse SUMO netconvert Version v1_23_0+0017-d43872979d0
<netconvertConfiguration xmlns:xsi="http://www.w3.org/2001/XMLSchema-instance" xsi:noNamespaceSchemaLocation="http://sumo.dlr.de/xsd/netconvertConfiguration.xsd">

    <input>
        <node-files value="nodes.nod.xml"/>
        <edge-files value="edges.edg.xml"/>
        <connection-files value="connections.con.xml"/>
    </input>

    <output>
        <output-file value="network.net.xml"/>
    </output>

    <junctions>
        <no-turnarounds value="true"/>
    </junctions>

    <report>
        <verbose value="true"/>
    </report>

</netconvertConfiguration>
-->

<net version="1.20" junctionCornerDetail="5" limitTurnSpeed="5.50" xmlns:xsi="http://www.w3.org/2001/XMLSchema-instance" xsi:noNamespaceSchemaLocation="http://sumo.dlr.de/xsd/net_file.xsd">

    <location netOffset="50.00,50.00" convBoundary="0.00,0.00,200.00,200.00" origBoundary="-50.00,-50.00,150.00,150.00" projParameter="!"/>

    <edge id=":J1_0" function="internal">
        <lane id=":J1_0_0" index="0" speed="13.89" length="14.40" shape="48.40,157.20 48.40,142.80"/>
    </edge>
    <edge id=":J1_1" function="internal">
        <lane id=":J1_1_0" index="0" speed="13.89" length="14.40" shape="57.20,151.60 42.80,151.60"/>
    </edge>
    <edge id=":J1_2" function="internal">
        <lane id=":J1_2_0" index="0" speed="13.89" length="14.40" shape="51.60,142.80 51.60,157.20"/>
    </edge>
    <edge id=":J1_3" function="internal">
        <lane id=":J1_3_0" index="0" speed="13.89" length="14.40" shape="42.80,148.40 57.20,148.40"/>
    </edge>
    <edge id=":J2_0" function="internal">
        <lane id=":J2_0_0" index="0" speed="13.89" length="14.40" shape="148.40,157.20 148.40,142.80"/>
    </edge>
    <edge id=":J2_1" function="internal">
        <lane id=":J2_1_0" index="0" speed="13.89" length="14.40" shape="157.20,151.60 142.80,151.60"/>
    </edge>
    <edge id=":J2_2" function="internal">
        <lane id=":J2_2_0" index="0" speed="13.89" length="14.40" shape="151.60,142.80 151.60,157.20"/>
    </edge>
    <edge id=":J2_3" function="internal">
        <lane id=":J2_3_0" index="0" speed="13.89" length="14.40" shape="142.80,148.40 157.20,148.40"/>
    </edge>
    <edge id=":J3_0" function="internal">
        <lane id=":J3_0_0" index="0" speed="13.89" length="14.40" shape="48.40,57.20 48.40,42.80"/>
    </edge>
    <edge id=":J3_1" function="internal">
        <lane id=":J3_1_0" index="0" speed="13.89" length="14.40" shape="57.20,51.60 42.80,51.60"/>
    </edge>
    <edge id=":J3_2" function="internal">
        <lane id=":J3_2_0" index="0" speed="13.89" length="14.40" shape="51.60,42.80 51.60,57.20"/>
    </edge>
    <edge id=":J3_3" function="internal">
        <lane id=":J3_3_0" index="0" speed="13.89" length="14.40" shape="42.80,48.40 57.20,48.40"/>
    </edge>
    <edge id=":J4_0" function="internal">
        <lane id=":J4_0_0" index="0" speed="13.89" length="14.40" shape="148.40,57.20 148.40,42.80"/>
    </edge>
    <edge id=":J4_1" function="internal">
        <lane id=":J4_1_0" index="0" speed="13.89" length="14.40" shape="157.20,51.60 142.80,51.60"/>
    </edge>
    <edge id=":J4_2" function="internal">
        <lane id=":J4_2_0" index="0" speed="13.89" length="14.40" shape="151.60,42.80 151.60,57.20"/>
    </edge>
    <edge id=":J4_3" function="internal">
        <lane id=":J4_3_0" index="0" speed="13.89" length="14.40" shape="142.80,48.40 157.20,48.40"/>
    </edge>

    <edge id="E1_2" from="J1" to="J2" priority="2">
        <lane id="E1_2_0" index="0" speed="13.89" length="85.60" shape="57.20,148.40 142.80,148.40"/>
    </edge>
    <edge id="E1_3" from="J1" to="J3" priority="2">
        <lane id="E1_3_0" index="0" speed="13.89" length="85.60" shape="48.40,142.80 48.40,57.20"/>
    </edge>
    <edge id="E2_1" from="J2" to="J1" priority="2">
        <lane id="E2_1_0" index="0" speed="13.89" length="85.60" shape="142.80,151.60 57.20,151.60"/>
    </edge>
    <edge id="E2_4" from="J2" to="J4" priority="2">
        <lane id="E2_4_0" index="0" speed="13.89" length="85.60" shape="148.40,142.80 148.40,57.20"/>
    </edge>
    <edge id="E3_1" from="J3" to="J1" priority="2">
        <lane id="E3_1_0" index="0" speed="13.89" length="85.60" shape="51.60,57.20 51.60,142.80"/>
    </edge>
    <edge id="E3_4" from="J3" to="J4" priority="2">
        <lane id="E3_4_0" index="0" speed="13.89" length="85.60" shape="57.20,48.40 142.80,48.40"/>
    </edge>
    <edge id="E4_2" from="J4" to="J2" priority="2">
        <lane id="E4_2_0" index="0" speed="13.89" length="85.60" shape="151.60,57.20 151.60,142.80"/>
    </edge>
    <edge id="E4_3" from="J4" to="J3" priority="2">
        <lane id="E4_3_0" index="0" speed="13.89" length="85.60" shape="142.80,51.60 57.20,51.60"/>
    </edge>
    <edge id="EJ1_N1" from="J1" to="N1" priority="1">
        <lane id="EJ1_N1_0" index="0" speed="13.89" length="42.80" shape="42.80,151.60 -0.00,151.60"/>
    </edge>
    <edge id="EJ1_N2" from="J1" to="N2" priority="1">
        <lane id="EJ1_N2_0" index="0" speed="13.89" length="42.80" shape="51.60,157.20 51.60,200.00"/>
    </edge>
    <edge id="EJ2_N3" from="J2" to="N3" priority="1">
        <lane id="EJ2_N3_0" index="0" speed="13.89" length="42.80" shape="157.20,148.40 200.00,148.40"/>
    </edge>
    <edge id="EJ2_N4" from="J2" to="N4" priority="1">
        <lane id="EJ2_N4_0" index="0" speed="13.89" length="42.80" shape="151.60,157.20 151.60,200.00"/>
    </edge>
    <edge id="EJ3_N5" from="J3" to="N5" priority="1">
        <lane id="EJ3_N5_0" index="0" speed="13.89" length="42.80" shape="42.80,51.60 -0.00,51.60"/>
    </edge>
    <edge id="EJ3_N6" from="J3" to="N6" priority="1">
        <lane id="EJ3_N6_0" index="0" speed="13.89" length="42.80" shape="48.40,42.80 48.40,-0.00"/>
    </edge>
    <edge id="EJ4_N7" from="J4" to="N7" priority="1">
        <lane id="EJ4_N7_0" index="0" speed="13.89" length="42.80" shape="157.20,48.40 200.00,48.40"/>
    </edge>
    <edge id="EJ4_N8" from="J4" to="N8" priority="1">
        <lane id="EJ4_N8_0" index="0" speed="13.89" length="42.80" shape="148.40,42.80 148.40,-0.00"/>
    </edge>
    <edge id="EN1_J1" from="N1" to="J1" priority="1">
        <lane id="EN1_J1_0" index="0" speed="13.89" length="42.80" shape="-0.00,148.40 42.80,148.40"/>
    </edge>
    <edge id="EN2_J1" from="N2" to="J1" priority="1">
        <lane id="EN2_J1_0" index="0" speed="13.89" length="42.80" shape="48.40,200.00 48.40,157.20"/>
    </edge>
    <edge id="EN3_J2" from="N3" to="J2" priority="1">
        <lane id="EN3_J2_0" index="0" speed="13.89" length="42.80" shape="200.00,151.60 157.20,151.60"/>
    </edge>
    <edge id="EN4_J2" from="N4" to="J2" priority="1">
        <lane id="EN4_J2_0" index="0" speed="13.89" length="42.80" shape="148.40,200.00 148.40,157.20"/>
    </edge>
    <edge id="EN5_J3" from="N5" to="J3" priority="1">
        <lane id="EN5_J3_0" index="0" speed="13.89" length="42.80" shape="-0.00,48.40 42.80,48.40"/>
    </edge>
    <edge id="EN6_J3" from="N6" to="J3" priority="1">
        <lane id="EN6_J3_0" index="0" speed="13.89" length="42.80" shape="51.60,-0.00 51.60,42.80"/>
    </edge>
    <edge id="EN7_J4" from="N7" to="J4" priority="1">
        <lane id="EN7_J4_0" index="0" speed="13.89" length="42.80" shape="200.00,51.60 157.20,51.60"/>
    </edge>
    <edge id="EN8_J4" from="N8" to="J4" priority="1">
        <lane id="EN8_J4_0" index="0" speed="13.89" length="42.80" shape="151.60,-0.00 151.60,42.80"/>
    </edge>

    <tlLogic id="J1" type="static" programID="0" offset="0">
        <phase duration="42" state="rGrG"/>
        <phase duration="3"  state="ryry"/>
        <phase duration="42" state="GrGr"/>
        <phase duration="3"  state="yryr"/>
    </tlLogic>
    <tlLogic id="J2" type="static" programID="0" offset="0">
        <phase duration="42" state="GrGr"/>
        <phase duration="3"  state="yryr"/>
        <phase duration="42" state="rGrG"/>
        <phase duration="3"  state="ryry"/>
    </tlLogic>
    <tlLogic id="J3" type="static" programID="0" offset="0">
        <phase duration="42" state="GrGr"/>
        <phase duration="3"  state="yryr"/>
        <phase duration="42" state="rGrG"/>
        <phase duration="3"  state="ryry"/>
    </tlLogic>
    <tlLogic id="J4" type="static" programID="0" offset="0">
        <phase duration="42" state="GrGr"/>
        <phase duration="3"  state="yryr"/>
        <phase duration="42" state="rGrG"/>
        <phase duration="3"  state="ryry"/>
    </tlLogic>

    <junction id="J1" type="traffic_light" x="50.00" y="150.00" incLanes="EN2_J1_0 E2_1_0 E3_1_0 EN1_J1_0" intLanes=":J1_0_0 :J1_1_0 :J1_2_0 :J1_3_0" shape="46.80,157.20 53.20,157.20 53.64,154.98 54.20,154.20 54.98,153.64 55.98,153.31 57.20,153.20 57.20,146.80 54.98,146.36 54.20,145.80 53.64,145.02 53.31,144.02 53.20,142.80 46.80,142.80 46.36,145.02 45.80,145.80 45.02,146.36 44.02,146.69 42.80,146.80 42.80,153.20 45.02,153.64 45.80,154.20 46.36,154.98 46.69,155.98">
        <request index="0" response="1010" foes="1010" cont="0"/>
        <request index="1" response="0000" foes="0101" cont="0"/>
        <request index="2" response="1010" foes="1010" cont="0"/>
        <request index="3" response="0000" foes="0101" cont="0"/>
    </junction>
    <junction id="J2" type="traffic_light" x="150.00" y="150.00" incLanes="EN4_J2_0 EN3_J2_0 E4_2_0 E1_2_0" intLanes=":J2_0_0 :J2_1_0 :J2_2_0 :J2_3_0" shape="146.80,157.20 153.20,157.20 153.64,154.98 154.20,154.20 154.98,153.64 155.98,153.31 157.20,153.20 157.20,146.80 154.98,146.36 154.20,145.80 153.64,145.02 153.31,144.02 153.20,142.80 146.80,142.80 146.36,145.02 145.80,145.80 145.02,146.36 144.02,146.69 142.80,146.80 142.80,153.20 145.02,153.64 145.80,154.20 146.36,154.98 146.69,155.98">
        <request index="0" response="0000" foes="1010" cont="0"/>
        <request index="1" response="0101" foes="0101" cont="0"/>
        <request index="2" response="0000" foes="1010" cont="0"/>
        <request index="3" response="0101" foes="0101" cont="0"/>
    </junction>
    <junction id="J3" type="traffic_light" x="50.00" y="50.00" incLanes="E1_3_0 E4_3_0 EN6_J3_0 EN5_J3_0" intLanes=":J3_0_0 :J3_1_0 :J3_2_0 :J3_3_0" shape="46.80,57.20 53.20,57.20 53.64,54.98 54.20,54.20 54.98,53.64 55.98,53.31 57.20,53.20 57.20,46.80 54.98,46.36 54.20,45.80 53.64,45.02 53.31,44.02 53.20,42.80 46.80,42.80 46.36,45.02 45.80,45.80 45.02,46.36 44.02,46.69 42.80,46.80 42.80,53.20 45.02,53.64 45.80,54.20 46.36,54.98 46.69,55.98">
        <request index="0" response="0000" foes="1010" cont="0"/>
        <request index="1" response="0101" foes="0101" cont="0"/>
        <request index="2" response="0000" foes="1010" cont="0"/>
        <request index="3" response="0101" foes="0101" cont="0"/>
    </junction>
    <junction id="J4" type="traffic_light" x="150.00" y="50.00" incLanes="E2_4_0 EN7_J4_0 EN8_J4_0 E3_4_0" intLanes=":J4_0_0 :J4_1_0 :J4_2_0 :J4_3_0" shape="146.80,57.20 153.20,57.20 153.64,54.98 154.20,54.20 154.98,53.64 155.98,53.31 157.20,53.20 157.20,46.80 154.98,46.36 154.20,45.80 153.64,45.02 153.31,44.02 153.20,42.80 146.80,42.80 146.36,45.02 145.80,45.80 145.02,46.36 144.02,46.69 142.80,46.80 142.80,53.20 145.02,53.64 145.80,54.20 146.36,54.98 146.69,55.98">
        <request index="0" response="0000" foes="1010" cont="0"/>
        <request index="1" response="0101" foes="0101" cont="0"/>
        <request index="2" response="0000" foes="1010" cont="0"/>
        <request index="3" response="0101" foes="0101" cont="0"/>
    </junction>
    <junction id="N1" type="dead_end" x="0.00" y="150.00" incLanes="EJ1_N1_0" intLanes="" shape="-0.00,150.00 -0.00,153.20 -0.00,150.00"/>
    <junction id="N2" type="dead_end" x="50.00" y="200.00" incLanes="EJ1_N2_0" intLanes="" shape="50.00,200.00 53.20,200.00 50.00,200.00"/>
    <junction id="N3" type="dead_end" x="200.00" y="150.00" incLanes="EJ2_N3_0" intLanes="" shape="200.00,150.00 200.00,146.80 200.00,150.00"/>
    <junction id="N4" type="dead_end" x="150.00" y="200.00" incLanes="EJ2_N4_0" intLanes="" shape="150.00,200.00 153.20,200.00 150.00,200.00"/>
    <junction id="N5" type="dead_end" x="0.00" y="50.00" incLanes="EJ3_N5_0" intLanes="" shape="-0.00,50.00 -0.00,53.20 -0.00,50.00"/>
    <junction id="N6" type="dead_end" x="50.00" y="0.00" incLanes="EJ3_N6_0" intLanes="" shape="50.00,-0.00 46.80,-0.00 50.00,-0.00"/>
    <junction id="N7" type="dead_end" x="200.00" y="50.00" incLanes="EJ4_N7_0" intLanes="" shape="200.00,50.00 200.00,46.80 200.00,50.00"/>
    <junction id="N8" type="dead_end" x="150.00" y="0.00" incLanes="EJ4_N8_0" intLanes="" shape="150.00,-0.00 146.80,-0.00 150.00,-0.00"/>

    <connection from="E1_2" to="EJ2_N3" fromLane="0" toLane="0" via=":J2_3_0" tl="J2" linkIndex="3" dir="s" state="o"/>
    <connection from="E1_3" to="EJ3_N6" fromLane="0" toLane="0" via=":J3_0_0" tl="J3" linkIndex="0" dir="s" state="O"/>
    <connection from="E2_1" to="EJ1_N1" fromLane="0" toLane="0" via=":J1_1_0" tl="J1" linkIndex="1" dir="s" state="O"/>
    <connection from="E2_4" to="EJ4_N8" fromLane="0" toLane="0" via=":J4_0_0" tl="J4" linkIndex="0" dir="s" state="O"/>
    <connection from="E3_1" to="EJ1_N2" fromLane="0" toLane="0" via=":J1_2_0" tl="J1" linkIndex="2" dir="s" state="o"/>
    <connection from="E3_4" to="EJ4_N7" fromLane="0" toLane="0" via=":J4_3_0" tl="J4" linkIndex="3" dir="s" state="o"/>
    <connection from="E4_2" to="EJ2_N4" fromLane="0" toLane="0" via=":J2_2_0" tl="J2" linkIndex="2" dir="s" state="O"/>
    <connection from="E4_3" to="EJ3_N5" fromLane="0" toLane="0" via=":J3_1_0" tl="J3" linkIndex="1" dir="s" state="o"/>
    <connection from="EN1_J1" to="E1_2" fromLane="0" toLane="0" via=":J1_3_0" tl="J1" linkIndex="3" dir="s" state="O"/>
    <connection from="EN2_J1" to="E1_3" fromLane="0" toLane="0" via=":J1_0_0" tl="J1" linkIndex="0" dir="s" state="o"/>
    <connection from="EN3_J2" to="E2_1" fromLane="0" toLane="0" via=":J2_1_0" tl="J2" linkIndex="1" dir="s" state="o"/>
    <connection from="EN4_J2" to="E2_4" fromLane="0" toLane="0" via=":J2_0_0" tl="J2" linkIndex="0" dir="s" state="O"/>
    <connection from="EN5_J3" to="E3_4" fromLane="0" toLane="0" via=":J3_3_0" tl="J3" linkIndex="3" dir="s" state="o"/>
    <connection from="EN6_J3" to="E3_1" fromLane="0" toLane="0" via=":J3_2_0" tl="J3" linkIndex="2" dir="s" state="O"/>
    <connection from="EN7_J4" to="E4_3" fromLane="0" toLane="0" via=":J4_1_0" tl="J4" linkIndex="1" dir="s" state="o"/>
    <connection from="EN8_J4" to="E4_2" fromLane="0" toLane="0" via=":J4_2_0" tl="J4" linkIndex="2" dir="s" state="O"/>

    <connection from=":J1_0" to="E1_3" fromLane="0" toLane="0" dir="s" state="M"/>
    <connection from=":J1_1" to="EJ1_N1" fromLane="0" toLane="0" dir="s" state="M"/>
    <connection from=":J1_2" to="EJ1_N2" fromLane="0" toLane="0" dir="s" state="M"/>
    <connection from=":J1_3" to="E1_2" fromLane="0" toLane="0" dir="s" state="M"/>
    <connection from=":J2_0" to="E2_4" fromLane="0" toLane="0" dir="s" state="M"/>
    <connection from=":J2_1" to="E2_1" fromLane="0" toLane="0" dir="s" state="M"/>
    <connection from=":J2_2" to="EJ2_N4" fromLane="0" toLane="0" dir="s" state="M"/>
    <connection from=":J2_3" to="EJ2_N3" fromLane="0" toLane="0" dir="s" state="M"/>
    <connection from=":J3_0" to="EJ3_N6" fromLane="0" toLane="0" dir="s" state="M"/>
    <connection from=":J3_1" to="EJ3_N5" fromLane="0" toLane="0" dir="s" state="M"/>
    <connection from=":J3_2" to="E3_1" fromLane="0" toLane="0" dir="s" state="M"/>
    <connection from=":J3_3" to="E3_4" fromLane="0" toLane="0" dir="s" state="M"/>
    <connection from=":J4_0" to="EJ4_N8" fromLane="0" toLane="0" dir="s" state="M"/>
    <connection from=":J4_1" to="E4_3" fromLane="0" toLane="0" dir="s" state="M"/>
    <connection from=":J4_2" to="E4_2" fromLane="0" toLane="0" dir="s" state="M"/>
    <connection from=":J4_3" to="EJ4_N7" fromLane="0" toLane="0" dir="s" state="M"/>

</net>
