<?xml version="1.0" encoding="UTF-8"?>
<nodes version="1.0" xmlns:xsi="http://www.w3.org/2001/XMLSchema-instance" xsi:noNamespaceSchemaLocation="http://sumo.dlr.de/xsd/nodes_file.xsd">
    <!-- 4 Traffic Light Junctions (2x2 grid) -->
    <node id="J1" x="0.0" y="100.0" type="traffic_light"/>
    <node id="J2" x="100.0" y="100.0" type="traffic_light"/>
    <node id="J3" x="0.0" y="0.0" type="traffic_light"/>
    <node id="J4" x="100.0" y="0.0" type="traffic_light"/>
    
    <!-- 8 External nodes (2 per junction) -->
    <!-- J1 external nodes -->
    <node id="N1" x="-50.0" y="100.0" type="priority"/>
    <node id="N2" x="0.0" y="150.0" type="priority"/>
    
    <!-- J2 external nodes -->
    <node id="N3" x="150.0" y="100.0" type="priority"/>
    <node id="N4" x="100.0" y="150.0" type="priority"/>
    
    <!-- J3 external nodes -->
    <node id="N5" x="-50.0" y="0.0" type="priority"/>
    <node id="N6" x="0.0" y="-50.0" type="priority"/>
    
    <!-- J4 external nodes -->
    <node id="N7" x="150.0" y="0.0" type="priority"/>
    <node id="N8" x="100.0" y="-50.0" type="priority"/>
</nodes>
